Circuit: * D:\github-stuff\RP2040_board2\sim\power.asc

Direct Newton iteration for .op point succeeded.

Date: Sun Sep 25 14:43:25 2022
Total elapsed time: 0.240 seconds.

tnom = 27
temp = 27
method = modified trap
totiter = 2126
traniter = 2096
tranpoints = 1049
accept = 1049
rejected = 0
matrix size = 20
fillins = 8
solver = Normal
Matrix Compiler1: 1.42 KB object code size  0.3/0.2/[0.2]
Matrix Compiler2: off  [0.2]/0.2/0.2

